/*--------------------------------*- C++ -*----------------------------------*\
| =========                 |                                                 |
| \\      /  F ield         | OpenFOAM: The Open Source CFD Toolbox           |
|  \\    /   O peration     | Version:  3.0.1                                 |
|   \\  /    A nd           | Web:      www.OpenFOAM.org                      |
|    \\/     M anipulation  |                                                 |
\*---------------------------------------------------------------------------*/
FoamFile
{
    version     2.0;
    format      ascii;
    class       dictionary;
    object      turbulenceProperties;
}
// * * * * * * * * * * * * * * * * * * * * * * * * * * * * * * * * * * * * * //

//~ simulationType laminar;
simulationType RAS;
//~ simulationType  LES;
 
RAS
{
    RASModel	    customKOmega;

    turbulence          on;

    printCoeffs         on;
}


LES
{
    LESModel        dynamicKEqn;
    
    turbulence      on;
    
    printCoeffs     on;
    
    delta           cubeRootVol;
    
    dynamicKEqnCoeffs
    {
        filter simple;
    }
    
    cubeRootVolCoeffs
    {
        deltaCoeff      1;
    }
    
    PrandtlCoeffs
    {
        delta           cubeRootVol;
        cubeRootVolCoeffs
        {
            deltaCoeff      1;
        }
    
        smoothCoeffs
        {
            delta           cubeRootVol;
            cubeRootVolCoeffs
            {
                deltaCoeff      1;
            }
    
            maxDeltaRatio   1.1;
        }
    
        Cdelta          0.158;
    }
    
    vanDriestCoeffs
    {
        delta           cubeRootVol;
        cubeRootVolCoeffs
        {
            deltaCoeff      1;
        }
    
        smoothCoeffs
        {
            delta           cubeRootVol;
            cubeRootVolCoeffs
            {
                deltaCoeff      1;
            }
    
            maxDeltaRatio   1.1;
        }
    
        Aplus           26;
        Cdelta          0.158;
    }
    
    smoothCoeffs
    {
        delta           cubeRootVol;
        cubeRootVolCoeffs
        {
            deltaCoeff      1;
        }
    
        maxDeltaRatio   1.1;
    }
}

// ************************************************************************* //
